T42/data/state_estimation/PT_Dx_01_2030_Su_Bd/PT_Dx_01_2030_Su_Bd_t20.csv
bus,vm_pu,va_degree,p_mw,q_mvar
1,0.977726,-0.066105,-9.409315,-3.718712
2,1.000177,0.000788,19.907744,6.459231
3,0.978307,-0.068675,-0.000043,0.000008
4,0.977609,-0.068065,0.000080,0.000047
5,0.978211,-0.068027,0.000014,-0.000007
6,0.978474,-0.066933,-0.025930,-0.013394
7,0.976452,-0.068206,-0.047871,-0.024561
8,0.977092,-0.067751,-0.019255,-0.009985
9,0.977033,-0.068626,-0.529678,-0.271432
10,0.976997,-0.067680,-2.371734,-1.215067
11,0.976415,-0.068646,-0.305774,-0.156594
12,0.974993,-0.070250,-0.003557,-0.001745
13,0.976980,-0.068453,-0.035495,-0.014015
14,0.978582,-0.068639,-0.772876,-0.389250
15,0.973870,-0.070555,-0.011432,-0.005922
16,0.977207,-0.067273,-0.005510,-0.002815
17,0.977351,-0.069347,-0.004841,-0.002459
18,0.977636,-0.068869,-0.013701,-0.006907
19,0.975549,-0.069676,-0.057785,-0.029649
20,0.977044,-0.067736,-0.238195,-0.115361
21,0.975157,-0.069788,-0.000762,-0.000319
22,0.976896,-0.068335,-0.003078,-0.001165
23,0.976046,-0.069555,-0.057606,-0.029454
24,0.974475,-0.069757,-0.061434,-0.024151
25,0.974036,-0.070151,-0.010923,-0.004344
26,0.977337,-0.068734,-0.038860,-0.019905
27,0.977891,-0.067954,-0.003357,-0.001741
28,0.975237,-0.069994,-0.025325,-0.012985
29,0.977550,-0.067820,-0.028162,-0.014418
30,0.976862,-0.068504,-0.147729,-0.075688
31,0.976763,-0.067693,-0.030169,-0.015396
32,0.978302,-0.067984,-0.107469,-0.055112
33,0.976399,-0.069672,-0.387217,-0.191614
34,0.975501,-0.069727,-0.004442,-0.002321
35,0.975596,-0.070230,-0.007044,-0.003735
36,0.977261,-0.068634,-0.010646,-0.005450
37,0.977723,-0.067567,-0.006326,-0.002471
38,0.975475,-0.070043,-0.058185,-0.029768
39,0.976845,-0.068589,-0.141042,-0.072293
40,0.975607,-0.069683,-0.010013,-0.003926
41,0.975918,-0.069946,-0.017847,-0.007083
42,0.975012,-0.069085,0.000060,-0.000036
43,0.976573,-0.069478,-0.056211,-0.028742
44,0.974651,-0.070000,-0.060244,-0.030875
45,0.975979,-0.070033,-0.002660,-0.000960
46,0.977230,-0.067916,-0.077163,-0.039589
47,0.975486,-0.069310,-0.165966,-0.085022
48,0.976468,-0.068423,-0.000532,-0.000271
49,0.977148,-0.067550,-0.018571,-0.009427
50,0.978226,-0.068025,-0.004410,-0.002380
51,0.977380,-0.068526,-0.015629,-0.006155
52,0.977470,-0.068350,-0.030002,-0.015441
53,0.976477,-0.069616,-0.163757,-0.083948
54,0.977009,-0.068524,-0.008223,-0.003191
55,0.978311,-0.069160,-0.036145,-0.018665
56,0.976113,-0.068309,-0.006520,-0.003332
57,0.976648,-0.068152,-0.005437,-0.002792
58,0.975023,-0.069899,-0.007498,-0.003832
59,0.975231,-0.069689,-0.033606,-0.013361
60,0.975509,-0.070219,-0.008002,-0.003179
61,0.977339,-0.068120,-0.601860,-0.301701
62,0.977953,-0.068477,-0.002148,-0.001096
63,0.975253,-0.069518,-0.001483,-0.000790
64,0.977493,-0.068140,-0.258559,-0.132557
65,0.977902,-0.068091,-0.523672,-0.261557
66,0.977283,-0.068264,-0.377226,-0.193214
67,0.977717,-0.067918,-0.043449,-0.022326
68,0.975916,-0.069721,-0.109831,-0.056286
69,0.977265,-0.068502,-0.018305,-0.007063
70,0.975780,-0.068521,-0.029460,-0.015133
71,0.975507,-0.069402,-0.005904,-0.003052
72,0.976051,-0.070209,-0.032560,-0.016688
73,0.975057,-0.069538,-0.009031,-0.003512
74,0.975558,-0.069654,-0.007054,-0.003643
75,0.975369,-0.069072,-0.085263,-0.043615
76,0.976456,-0.068679,-0.017484,-0.009044
77,0.976761,-0.068165,-0.015463,-0.007915
78,0.976830,-0.067886,-0.187405,-0.096007
79,0.978276,-0.069607,-0.116579,-0.059796
80,0.975672,-0.069461,0.000035,0.000013
81,0.975174,-0.070835,-0.001667,-0.000907
82,0.977026,-0.067966,-0.015900,-0.008157
83,0.977087,-0.068985,-0.007383,-0.003756
84,0.976832,-0.068817,-0.005248,-0.002695
85,0.975783,-0.069753,-0.017912,-0.009098
86,0.978099,-0.068277,-0.018990,-0.007493
87,0.976016,-0.068395,-0.016201,-0.008258
88,0.977299,-0.068756,-0.030900,-0.015802
89,0.976962,-0.067868,-0.232845,-0.119257
90,0.977275,-0.068535,-0.071151,-0.036466
91,0.975341,-0.070095,-0.052538,-0.026839
92,0.975257,-0.069549,-0.002013,-0.001050
93,0.976629,-0.068438,-0.055030,-0.028179
94,0.974895,-0.069149,-0.064816,-0.033179
95,0.977814,-0.068169,-0.187184,-0.095909
96,0.974775,-0.070505,-0.024450,-0.009693
97,0.975185,-0.069765,-0.016443,-0.008306
98,0.976558,-0.069780,-0.047749,-0.018880
99,0.977444,-0.067456,-0.366863,-0.181191
100,0.976989,-0.068569,-0.006679,-0.003300
101,0.976373,-0.069161,-0.068060,-0.026972
102,0.976782,-0.067673,-0.210202,-0.101085
103,0.976532,-0.067567,-0.036587,-0.014424
104,0.974821,-0.070180,-0.119487,-0.047217
105,0.977458,-0.067435,-0.001304,-0.000654
106,0.977483,-0.068650,0.000049,0.000048
107,0.977181,-0.067750,0.000005,0.000009
108,0.977664,-0.068236,0.000001,-0.000036
109,0.977105,-0.067960,-0.000004,-0.000087
110,0.976200,-0.070218,-0.000071,0.000023
111,0.975627,-0.069533,0.000047,-0.000005
112,0.977796,-0.069067,0.000028,0.000065
113,0.977203,-0.067947,-0.000074,0.000021
114,0.975486,-0.069207,0.000155,0.000054
115,0.974513,-0.070030,-0.000010,0.000019
116,0.976882,-0.068061,0.000047,-0.000085
117,0.975237,-0.070457,0.000001,-0.000034
118,0.976451,-0.067993,0.000058,0.000083
119,0.977682,-0.068524,-0.000002,-0.000010
120,0.977035,-0.067584,-0.000053,0.000143
121,0.977796,-0.067593,-0.000070,0.000038
122,0.976818,-0.068167,0.000065,-0.000040
123,0.977088,-0.069022,-0.000052,0.000065
124,0.977396,-0.067730,-0.000078,0.000058
125,0.977361,-0.069233,-0.000035,-0.000078
126,0.975679,-0.070844,-0.000019,0.000002
127,0.977302,-0.068747,-0.000023,0.000060
128,0.976240,-0.068847,0.000085,-0.000060
129,0.974385,-0.070282,0.000042,-0.000025
130,0.975331,-0.070018,-0.000033,0.000039
131,0.977527,-0.067870,0.000022,0.000126
132,0.975506,-0.068902,-0.000042,0.000012
133,0.977601,-0.067903,-0.000005,0.000016
134,0.977345,-0.068484,0.000014,-0.000015
135,0.975028,-0.069612,0.000016,-0.000024
136,0.975382,-0.069944,-0.000078,0.000097
137,0.975096,-0.070188,-0.000009,0.000062
138,0.974349,-0.070101,-0.000101,0.000012
139,0.975272,-0.069683,0.000051,0.000006
140,0.977473,-0.068750,0.000021,0.000049
141,0.976038,-0.069648,-0.000088,0.000134
142,0.974076,-0.070865,-0.000074,0.000032
143,0.974721,-0.069544,-0.000009,-0.000053
144,0.978223,-0.067475,-0.000014,0.000037
145,0.977672,-0.068046,0.000019,0.000021
146,0.976974,-0.068174,0.000083,0.000026
147,0.977585,-0.068037,-0.000019,0.000099
148,0.977051,-0.069003,-0.000019,-0.000002
149,0.975511,-0.069913,-0.000029,0.000090
150,0.976326,-0.069796,0.000017,-0.000034
151,0.977841,-0.068416,0.000051,-0.000034
152,0.977569,-0.068062,0.000007,-0.000032
153,0.978333,-0.068443,0.000011,-0.000035
154,0.977452,-0.068350,0.000068,0.000061
155,0.974697,-0.069495,0.000003,-0.000016
156,0.976960,-0.069354,0.000027,-0.000024
157,0.978457,-0.067824,-0.000074,-0.000134
158,0.977749,-0.068223,0.000004,0.000017
159,0.975450,-0.068837,0.000038,-0.000010
160,0.978054,-0.068189,-0.000131,-0.000074
161,0.977398,-0.067874,0.000049,-0.000067
162,0.975333,-0.069852,0.000032,-0.000012
163,0.978256,-0.068428,0.000024,0.000076
164,0.977753,-0.068719,0.000007,0.000001
165,0.979173,-0.068095,-0.000025,-0.000001
166,0.977829,-0.068890,0.000129,-0.000026
167,0.974938,-0.069788,-0.000045,0.000033
168,0.977049,-0.068956,0.000109,0.000093
169,0.976963,-0.068520,-0.000040,0.000051
170,0.977920,-0.068016,0.000011,0.000009
171,0.975141,-0.069991,0.000017,-0.000042
172,0.975872,-0.069800,-0.000031,-0.000076
173,0.977944,-0.067837,0.000115,-0.000033
174,0.975088,-0.069385,-0.000039,0.000059
175,0.975426,-0.069392,-0.000048,-0.000030
176,0.976223,-0.068568,0.000054,0.000048
177,0.975205,-0.070563,-0.000022,-0.000011
178,0.975823,-0.070571,-0.000017,0.000046
179,0.977040,-0.068762,-0.000022,0.000023
180,0.977294,-0.068574,-0.000004,0.000068
181,0.975316,-0.068886,-0.000050,-0.000003
182,0.975935,-0.069682,-0.000077,0.000032
183,0.978344,-0.068678,-0.000042,-0.000031
184,0.977686,-0.068744,0.000038,-0.000002
185,0.976282,-0.068377,0.000008,-0.000011
186,0.975459,-0.069347,0.000009,0.000005
187,0.977256,-0.068740,-0.000018,0.000009
188,0.975824,-0.069199,-0.000013,0.000036
189,0.976558,-0.067603,-0.000025,-0.000016
190,0.975263,-0.069130,-0.000005,-0.000016
191,0.978465,-0.069249,0.000017,0.000047
